-------------------------------------------------------
          Amber 12 SANDER                              2012
          -------------------------------------------------------

  [-O]verwriting output

File Assignments:

 Here is the input file:

#
# production dynamics at 300 K
#

&cntrl
 imin=0,

 nstlim=1000000,
 dt=0.001,
 irest=1,
 ntx=5,

 ntpr=1000,
 ntwx=1000,
 ntwr=1000,
 ioutfm=1,

 ntf=2,
 ntb=0,
 cut=999,

 ig=-1,
 temp0=300.0,
 ntt=3,
 gamma_ln=2.0,

 ntc=2,
&end

--------------------------------------------------------------------------------
   1.  RESOURCE   USE:
--------------------------------------------------------------------------------

 NATOM  =     134 NTYPES =      10 NBONH =      82 MBONA  =      51
 NTHETH =     197 MTHETA =      59 NPHIH =     317 MPHIA  =     109
 NHPARM =       0 NPARM  =       0 NNB   =     753 NRES   =       1
 NBONA  =      51 NTHETA =      59 NPHIA =     109 NUMBND =      14
 NUMANG =      27 NPTRA  =      28 NATYP =      11 NPHB   =       0
 IFBOX  =       0 NMXRS  =     134 IFCAP =       0 NEXTRA =       0
 NCOPY  =       0

Note: ig = -1. Setting random seed based on wallclock time in microseconds.

--------------------------------------------------------------------------------
   2.  CONTROL  DATA  FOR  THE  RUN
--------------------------------------------------------------------------------

BLA

General flags:
     imin    =       0, nmropt  =       0

Nature and format of input:
     ntx     =       5, irest   =       1, ntrx    =       1

Nature and format of output:
     ntxo    =       1, ntpr    =    1000, ntrx    =       1, ntwr    =    1000
     iwrap   =       0, ntwx    =    1000, ntwv    =       0, ntwe    =       0
     ioutfm  =       1, ntwprt  =       0, idecomp =       0, rbornstat=      0

Potential function:
     ntf     =       2, ntb     =       0, igb     =       0, nsnb    =      25
     ipol    =       0, gbsa    =       0, iesp    =       0
     dielc   =   1.00000, cut     = 999.00000, intdiel =   1.00000

Frozen or restrained atoms:
     ibelly  =       0, ntr     =       0

Molecular dynamics:
     nstlim  =   1000000, nscm    =      1000, nrespa  =         1
     t       =   0.00000, dt      =   0.00100, vlimit  =  20.00000

Langevin dynamics temperature regulation:
     ig      =  397639
     temp0   = 300.00000, tempi   =   0.00000, gamma_ln=   2.00000

SHAKE:
     ntc     =       2, jfastw  =       0
     tol     =   0.00001

--------------------------------------------------------------------------------
   3.  ATOMIC COORDINATES AND VELOCITIES
--------------------------------------------------------------------------------

BLA
 begin time read from input coords =   200.000 ps

 Number of triangulated 3-point waters found:        0

     Sum of charges from parm topology file =   0.00599899
     Forcing neutrality...

--------------------------------------------------------------------------------
   4.  RESULTS
 NSTEP =     1000   TIME(PS) =     201.000  TEMP(K) =   305.50  PRESS =     0.0
 Etot   =       147.7987  EKtot   =        97.1336  EPtot      =        50.6651
 BOND   =        17.4242  ANGLE   =        58.8371  DIHED      =        50.0390
 1-4 NB =        18.9930  1-4 EEL =        50.8915  VDWAALS    =       -17.0724
 EELEC  =      -128.4472  EHBOND  =         0.0000  RESTRAINT  =         0.0000
 ------------------------------------------------------------------------------

      A V E R A G E S   O V E R 1000000 S T E P S

 NSTEP =  1000000   TIME(PS) =    1200.000  TEMP(K) =   300.44  PRESS =     0.0
 Etot   =       149.3044  EKtot   =        95.5240  EPtot      =        53.7804
 BOND   =        17.7816  ANGLE   =        69.1645  DIHED      =        50.6906
 1-4 NB =        19.1317  1-4 EEL =        51.7905  VDWAALS    =       -20.4008
 EELEC  =      -134.3777  EHBOND  =         0.0000  RESTRAINT  =         0.0000
 ------------------------------------------------------------------------------

      R M S  F L U C T U A T I O N S

 NSTEP =  1000000   TIME(PS) =    1200.000  TEMP(K) =    23.65  PRESS =     0.0
 Etot   =        11.5311  EKtot   =         7.5198  EPtot      =         8.7254
 BOND   =         3.4582  ANGLE   =         6.2887  DIHED      =         3.0806
 1-4 NB =         1.8182  1-4 EEL =         2.8335  VDWAALS    =         3.6955
 EELEC  =         4.5344  EHBOND  =         0.0000  RESTRAINT  =         0.0000
 ------------------------------------------------------------------------------
