-------------------------------------------------------
          Amber 12 SANDER                              2012
          -------------------------------------------------------

  [-O]verwriting output

File Assignments:

 Here is the input file:

#
# equilibration at 300 K
#

&cntrl
 imin=0,

 nstlim=100000,
 dt=0.001,
 irest=1,
 ntx=5,

 ntpr=500,
 ntwx=500,
 ntwr=500,
 ioutfm=1,

 ntf=2,
 ntb=0,
 cut=999,

 temp0=300.0,
 ntt=3,
 gamma_ln=2.0,

 ntc=2,
&end

--------------------------------------------------------------------------------
   1.  RESOURCE   USE:
--------------------------------------------------------------------------------

 NATOM  =     134 NTYPES =      10 NBONH =      82 MBONA  =      51
 NTHETH =     197 MTHETA =      59 NPHIH =     317 MPHIA  =     109
 NHPARM =       0 NPARM  =       0 NNB   =     753 NRES   =       1
 NBONA  =      51 NTHETA =      59 NPHIA =     109 NUMBND =      14
 NUMANG =      27 NPTRA  =      28 NATYP =      11 NPHB   =       0
 IFBOX  =       0 NMXRS  =     134 IFCAP =       0 NEXTRA =       0
 NCOPY  =       0

--------------------------------------------------------------------------------
   2.  CONTROL  DATA  FOR  THE  RUN
--------------------------------------------------------------------------------

BLA

General flags:
     imin    =       0, nmropt  =       0

Nature and format of input:
     ntx     =       5, irest   =       1, ntrx    =       1

Nature and format of output:
     ntxo    =       1, ntpr    =     500, ntrx    =       1, ntwr    =     500
     iwrap   =       0, ntwx    =     500, ntwv    =       0, ntwe    =       0
     ioutfm  =       1, ntwprt  =       0, idecomp =       0, rbornstat=      0

Potential function:
     ntf     =       2, ntb     =       0, igb     =       0, nsnb    =      25
     ipol    =       0, gbsa    =       0, iesp    =       0
     dielc   =   1.00000, cut     = 999.00000, intdiel =   1.00000

Frozen or restrained atoms:
     ibelly  =       0, ntr     =       0

Molecular dynamics:
     nstlim  =    100000, nscm    =      1000, nrespa  =         1
     t       =   0.00000, dt      =   0.00100, vlimit  =  20.00000

Langevin dynamics temperature regulation:
     ig      =   71277
     temp0   = 300.00000, tempi   =   0.00000, gamma_ln=   2.00000

SHAKE:
     ntc     =       2, jfastw  =       0
     tol     =   0.00001

--------------------------------------------------------------------------------
   3.  ATOMIC COORDINATES AND VELOCITIES
--------------------------------------------------------------------------------

BLA
 begin time read from input coords =   100.000 ps

 Number of triangulated 3-point waters found:        0

     Sum of charges from parm topology file =   0.00599899
     Forcing neutrality...

--------------------------------------------------------------------------------
   4.  RESULTS
 NSTEP =      500   TIME(PS) =     100.500  TEMP(K) =   306.36  PRESS =     0.0
 Etot   =       152.9104  EKtot   =        97.4072  EPtot      =        55.5032
 BOND   =        15.5038  ANGLE   =        68.6749  DIHED      =        47.3242
 1-4 NB =        19.6434  1-4 EEL =        46.5624  VDWAALS    =       -17.3805
 EELEC  =      -124.8249  EHBOND  =         0.0000  RESTRAINT  =         0.0000
 ------------------------------------------------------------------------------

      A V E R A G E S   O V E R  100000 S T E P S

 NSTEP =   100000   TIME(PS) =     200.000  TEMP(K) =   301.33  PRESS =     0.0
 Etot   =       151.6865  EKtot   =        95.8097  EPtot      =        55.8769
 BOND   =        17.5387  ANGLE   =        68.0963  DIHED      =        49.7188
 1-4 NB =        19.4349  1-4 EEL =        47.6127  VDWAALS    =       -18.4222
 EELEC  =      -128.1022  EHBOND  =         0.0000  RESTRAINT  =         0.0000
 ------------------------------------------------------------------------------

      R M S  F L U C T U A T I O N S

 NSTEP =   100000   TIME(PS) =     200.000  TEMP(K) =    23.66  PRESS =     0.0
 Etot   =        10.3654  EKtot   =         7.5218  EPtot      =         7.7441
 BOND   =         3.5140  ANGLE   =         6.1219  DIHED      =         2.9150
 1-4 NB =         1.7978  1-4 EEL =         2.9374  VDWAALS    =         2.4119
 EELEC  =         4.8756  EHBOND  =         0.0000  RESTRAINT  =         0.0000
 ------------------------------------------------------------------------------
